&jules_surface
cor_mo_iter=3,
l_epot_corr=.true.,
l_point_data=.false.,
/
